


 35 37  0  0  0  0  0  0  0  0999 V2000
   -4.2971   23.0464    4.8961 C   0  0  0  0  0  0  0  0  0  0  0  0
   -4.0217   22.2561    3.7581 O   0  0  0  0  0  0  0  0  0  0  0  0
   -5.0694   21.3232    3.6226 C   0  0  0  0  0  0  0  0  0  0  0  0
   -6.2983   21.8888    4.3237 C   0  0  0  0  0  0  0  0  0  0  0  0
   -7.1279   20.8684    4.8161 O   0  0  0  0  0  0  0  0  0  0  0  0
   -5.6884   22.7051    5.4390 C   0  0  0  0  0  0  0  0  0  0  0  0
   -5.5610   21.9432    6.6151 O   0  0  0  0  0  0  0  0  0  0  0  0
   -7.6457   20.5250    4.0419 H   0  0  0  0  0  0  0  0  0  0  0  0
   -6.4269   22.0114    7.0960 H   0  0  0  0  0  0  0  0  0  0  0  0
   -2.9013   28.7533    3.2767 N   0  0  0  0  0  0  0  0  0  0  0  0
   -2.5473   27.4332    3.6893 C   0  0  0  0  0  0  0  0  0  0  0  0
   -1.2363   27.0879    3.8614 N   0  0  0  0  0  0  0  0  0  0  0  0
   -0.8775   25.8266    4.2648 C   0  0  0  0  0  0  0  0  0  0  0  0
   -1.8323   24.8799    4.5110 N   0  0  0  0  0  0  0  0  0  0  0  0
   -3.1300   25.2256    4.3419 C   0  0  0  0  0  0  0  0  0  0  0  0
   -3.5096   26.4617    3.9447 C   0  0  0  0  0  0  0  0  0  0  0  0
   -4.8499   26.5412    3.8587 N   0  0  0  0  0  0  0  0  0  0  0  0
   -5.2490   25.2915    4.2275 C   0  0  0  0  0  0  0  0  0  0  0  0
   -4.2162   24.4668    4.5446 N   0  0  0  0  0  0  0  0  0  0  0  0
   -3.9029   29.0291    3.1565 H   0  0  0  0  0  0  0  0  0  0  0  0
   -2.1558   29.4586    3.0794 H   0  0  0  0  0  0  0  0  0  0  0  0
   -5.3307   21.0435    2.1397 C   0  0  0  0  0  0  0  0  0  0  0  0
   -4.1165   20.6986    1.5145 O   0  0  0  0  0  0  0  0  0  0  0  0
   -4.0911   19.0103    1.2705 P   0  0  0  0  0  0  0  0  0  0  0  0
   -3.0997   18.3727    2.2179 O   0  0  0  0  0  0  0  0  0  0  0  0
   -3.5898   18.6920   -0.3144 O   0  0  0  0  0  0  0  0  0  0  0  0
   -5.6307   18.3384    1.5577 O   0  0  0  0  0  0  0  0  0  0  0  0
   -5.7025   16.8413    0.7491 P   0  0  0  0  0  0  0  0  0  0  0  0
   -6.9234   16.0790    1.2157 O   0  0  0  0  0  0  0  0  0  0  0  0
   -5.8515   17.1542   -0.9074 O   0  0  0  0  0  0  0  0  0  0  0  0
   -4.2875   15.9396    1.0540 O   0  0  0  0  0  0  0  0  0  0  0  0
   -4.6707   14.2786    0.9759 P   0  0  0  0  0  0  0  0  0  0  0  0
   -5.3781   13.8333    2.4464 O   0  0  0  0  0  0  0  0  0  0  0  0
   -5.7682   13.9328   -0.2679 O   0  0  0  0  0  0  0  0  0  0  0  0
   -3.2357   13.3408    0.7519 S   0  0  0  0  0  0  0  0  0  0  0  0
 10 11  1  0  0  0
 10 20  1  0  0  0
 10 21  1  0  0  0
 11 12  2  0  0  0
 11 16  1  0  0  0
 12 13  1  0  0  0
 13 14  2  0  0  0
 14 15  1  0  0  0
 15 16  2  0  0  0
 15 19  1  0  0  0
 16 17  1  0  0  0
 17 18  2  0  0  0
 18 19  1  0  0  0
 19  1  1  0  0  0
  1  2  1  0  0  0
  1  6  1  0  0  0
  2  3  1  0  0  0
  3 22  1  0  0  0
  3  4  1  0  0  0
 22 23  1  0  0  0
 23 24  1  0  0  0
 24 25  2  0  0  0
 24 26  1  0  0  0
 24 27  1  0  0  0
 27 28  1  0  0  0
 28 29  2  0  0  0
 28 30  1  0  0  0
 28 31  1  0  0  0
 31 32  1  0  0  0
 32 33  1  0  0  0
 32 34  1  0  0  0
 32 35  2  0  0  0
  4  5  1  0  0  0
  4  6  1  0  0  0
  5  8  1  0  0  0
  6  7  1  0  0  0
  7  9  1  0  0  0
M  CHG 1  26  -1
M  CHG 1  30  -1
M  CHG 1  33  -1
M  CHG 1  34  -1
M  END
> <COMPND>
    ../0-casp/DBelp1.pdb 

> <AUTHOR>
    GENERATED BY OPEN BABEL 3.1.0

> <MASTER>
        0    0    0    0    0    0    0    0   43    0   43    0

> <minimizedAffinity>
-7.39502

> <CNNscore>
0.3503782153

> <CNNaffinity>
4.6054358482

> <CNN_VS>
1.6136443615

> <CNNaffinity_variance>
0.4047592282

$$$$



 35 37  0  0  0  0  0  0  0  0999 V2000
   15.0220   -8.0643  -10.7137 C   0  0  0  0  0  0  0  0  0  0  0  0
   15.0282   -8.4311   -9.3495 O   0  0  0  0  0  0  0  0  0  0  0  0
   15.5288   -9.7457   -9.2633 C   0  0  0  0  0  0  0  0  0  0  0  0
   16.3820  -10.0077  -10.4983 C   0  0  0  0  0  0  0  0  0  0  0  0
   16.3776  -11.3669  -10.8508 O   0  0  0  0  0  0  0  0  0  0  0  0
   15.7077   -9.1528  -11.5456 C   0  0  0  0  0  0  0  0  0  0  0  0
   14.7371   -9.8866  -12.2524 O   0  0  0  0  0  0  0  0  0  0  0  0
   17.0101  -11.8218  -10.2357 H   0  0  0  0  0  0  0  0  0  0  0  0
   15.2100  -10.3473  -12.9940 H   0  0  0  0  0  0  0  0  0  0  0  0
   18.7494   -3.2573  -11.0859 N   0  0  0  0  0  0  0  0  0  0  0  0
   18.4299   -4.5794  -10.6520 C   0  0  0  0  0  0  0  0  0  0  0  0
   19.3251   -5.3038   -9.9162 N   0  0  0  0  0  0  0  0  0  0  0  0
   19.0326   -6.5726   -9.4840 C   0  0  0  0  0  0  0  0  0  0  0  0
   17.8260   -7.1439   -9.7779 N   0  0  0  0  0  0  0  0  0  0  0  0
   16.9406   -6.4230  -10.5048 C   0  0  0  0  0  0  0  0  0  0  0  0
   17.2049   -5.1708  -10.9431 C   0  0  0  0  0  0  0  0  0  0  0  0
   16.1607   -4.6806  -11.6354 N   0  0  0  0  0  0  0  0  0  0  0  0
   15.2607   -5.7026  -11.5848 C   0  0  0  0  0  0  0  0  0  0  0  0
   15.7053   -6.7792  -10.8846 N   0  0  0  0  0  0  0  0  0  0  0  0
   18.0641   -2.6915  -11.6372 H   0  0  0  0  0  0  0  0  0  0  0  0
   19.6830   -2.8437  -10.8634 H   0  0  0  0  0  0  0  0  0  0  0  0
   16.3255   -9.9169   -7.9666 C   0  0  0  0  0  0  0  0  0  0  0  0
   16.4654   -8.6620   -7.3421 O   0  0  0  0  0  0  0  0  0  0  0  0
   17.7705   -8.7426   -6.2464 P   0  0  0  0  0  0  0  0  0  0  0  0
   18.8919   -9.5598   -6.8479 O   0  0  0  0  0  0  0  0  0  0  0  0
   17.2527   -9.5136   -4.8316 O   0  0  0  0  0  0  0  0  0  0  0  0
   18.3589   -7.1820   -5.8968 O   0  0  0  0  0  0  0  0  0  0  0  0
   17.1110   -6.3180   -5.1244 P   0  0  0  0  0  0  0  0  0  0  0  0
   17.5597   -4.8918   -4.8921 O   0  0  0  0  0  0  0  0  0  0  0  0
   15.7706   -6.3097   -6.1576 O   0  0  0  0  0  0  0  0  0  0  0  0
   16.7095   -7.0623   -3.6435 O   0  0  0  0  0  0  0  0  0  0  0  0
   15.7945   -5.9648   -2.7107 P   0  0  0  0  0  0  0  0  0  0  0  0
   16.8699   -4.9419   -1.8993 O   0  0  0  0  0  0  0  0  0  0  0  0
   14.7719   -5.0100   -3.6665 O   0  0  0  0  0  0  0  0  0  0  0  0
   14.8534   -6.8142   -1.5353 S   0  0  0  0  0  0  0  0  0  0  0  0
 10 11  1  0  0  0
 10 20  1  0  0  0
 10 21  1  0  0  0
 11 12  2  0  0  0
 11 16  1  0  0  0
 12 13  1  0  0  0
 13 14  2  0  0  0
 14 15  1  0  0  0
 15 16  2  0  0  0
 15 19  1  0  0  0
 16 17  1  0  0  0
 17 18  2  0  0  0
 18 19  1  0  0  0
 19  1  1  0  0  0
  1  2  1  0  0  0
  1  6  1  0  0  0
  2  3  1  0  0  0
  3 22  1  0  0  0
  3  4  1  0  0  0
 22 23  1  0  0  0
 23 24  1  0  0  0
 24 25  2  0  0  0
 24 26  1  0  0  0
 24 27  1  0  0  0
 27 28  1  0  0  0
 28 29  2  0  0  0
 28 30  1  0  0  0
 28 31  1  0  0  0
 31 32  1  0  0  0
 32 33  1  0  0  0
 32 34  1  0  0  0
 32 35  2  0  0  0
  4  5  1  0  0  0
  4  6  1  0  0  0
  5  8  1  0  0  0
  6  7  1  0  0  0
  7  9  1  0  0  0
M  CHG 1  26  -1
M  CHG 1  30  -1
M  CHG 1  33  -1
M  CHG 1  34  -1
M  END
> <COMPND>
    ../0-casp/DBelp1.pdb 

> <AUTHOR>
    GENERATED BY OPEN BABEL 3.1.0

> <MASTER>
        0    0    0    0    0    0    0    0   43    0   43    0

> <minimizedAffinity>
-6.43501

> <CNNscore>
0.2594524026

> <CNNaffinity>
4.2523217201

> <CNN_VS>
1.1032750607

> <CNNaffinity_variance>
0.2287828177

$$$$



 35 37  0  0  0  0  0  0  0  0999 V2000
  -15.2914   11.0588  -11.1651 C   0  0  0  0  0  0  0  0  0  0  0  0
  -14.1514   11.5326  -11.8518 O   0  0  0  0  0  0  0  0  0  0  0  0
  -14.3606   12.8971  -12.1357 C   0  0  0  0  0  0  0  0  0  0  0  0
  -15.3690   13.4390  -11.1301 C   0  0  0  0  0  0  0  0  0  0  0  0
  -16.1179   14.4978  -11.6684 O   0  0  0  0  0  0  0  0  0  0  0  0
  -16.2282   12.2288  -10.8481 C   0  0  0  0  0  0  0  0  0  0  0  0
  -17.3423   12.1857  -11.7065 O   0  0  0  0  0  0  0  0  0  0  0  0
  -15.5411   15.3045  -11.6249 H   0  0  0  0  0  0  0  0  0  0  0  0
  -18.0521   12.7355  -11.2826 H   0  0  0  0  0  0  0  0  0  0  0  0
  -13.8097    7.3191   -6.5870 N   0  0  0  0  0  0  0  0  0  0  0  0
  -14.4161    7.5938   -7.8500 C   0  0  0  0  0  0  0  0  0  0  0  0
  -15.0452    6.6018   -8.5483 N   0  0  0  0  0  0  0  0  0  0  0  0
  -15.6400    6.8486   -9.7597 C   0  0  0  0  0  0  0  0  0  0  0  0
  -15.6212    8.1050  -10.2978 N   0  0  0  0  0  0  0  0  0  0  0  0
  -14.9994    9.0860   -9.6027 C   0  0  0  0  0  0  0  0  0  0  0  0
  -14.4052    8.8684   -8.4071 C   0  0  0  0  0  0  0  0  0  0  0  0
  -13.8672   10.0060   -7.9311 N   0  0  0  0  0  0  0  0  0  0  0  0
  -14.1734   10.9120   -8.9019 C   0  0  0  0  0  0  0  0  0  0  0  0
  -14.8812   10.3798   -9.9329 N   0  0  0  0  0  0  0  0  0  0  0  0
  -13.3388    8.0760   -6.0402 H   0  0  0  0  0  0  0  0  0  0  0  0
  -13.8223    6.3487   -6.1993 H   0  0  0  0  0  0  0  0  0  0  0  0
  -13.0293   13.6520  -12.0794 C   0  0  0  0  0  0  0  0  0  0  0  0
  -12.9706   14.3951  -10.8842 O   0  0  0  0  0  0  0  0  0  0  0  0
  -12.8480   16.0503  -11.2787 P   0  0  0  0  0  0  0  0  0  0  0  0
  -14.2313   16.6450  -11.4198 O   0  0  0  0  0  0  0  0  0  0  0  0
  -12.0513   16.2032  -12.7640 O   0  0  0  0  0  0  0  0  0  0  0  0
  -12.0108   16.8981  -10.0602 O   0  0  0  0  0  0  0  0  0  0  0  0
  -10.7965   15.8698   -9.4534 P   0  0  0  0  0  0  0  0  0  0  0  0
  -11.4171   14.8701   -8.5022 O   0  0  0  0  0  0  0  0  0  0  0  0
  -10.1225   15.0356  -10.7626 O   0  0  0  0  0  0  0  0  0  0  0  0
   -9.5973   16.7827   -8.6554 O   0  0  0  0  0  0  0  0  0  0  0  0
   -8.4682   17.3308   -9.8114 P   0  0  0  0  0  0  0  0  0  0  0  0
   -7.3189   16.1113  -10.0419 O   0  0  0  0  0  0  0  0  0  0  0  0
   -9.1936   17.6663  -11.3055 O   0  0  0  0  0  0  0  0  0  0  0  0
   -7.6581   18.7456   -9.2364 S   0  0  0  0  0  0  0  0  0  0  0  0
 10 11  1  0  0  0
 10 20  1  0  0  0
 10 21  1  0  0  0
 11 12  2  0  0  0
 11 16  1  0  0  0
 12 13  1  0  0  0
 13 14  2  0  0  0
 14 15  1  0  0  0
 15 16  2  0  0  0
 15 19  1  0  0  0
 16 17  1  0  0  0
 17 18  2  0  0  0
 18 19  1  0  0  0
 19  1  1  0  0  0
  1  2  1  0  0  0
  1  6  1  0  0  0
  2  3  1  0  0  0
  3 22  1  0  0  0
  3  4  1  0  0  0
 22 23  1  0  0  0
 23 24  1  0  0  0
 24 25  2  0  0  0
 24 26  1  0  0  0
 24 27  1  0  0  0
 27 28  1  0  0  0
 28 29  2  0  0  0
 28 30  1  0  0  0
 28 31  1  0  0  0
 31 32  1  0  0  0
 32 33  1  0  0  0
 32 34  1  0  0  0
 32 35  2  0  0  0
  4  5  1  0  0  0
  4  6  1  0  0  0
  5  8  1  0  0  0
  6  7  1  0  0  0
  7  9  1  0  0  0
M  CHG 1  26  -1
M  CHG 1  30  -1
M  CHG 1  33  -1
M  CHG 1  34  -1
M  END
> <COMPND>
    ../0-casp/DBelp1.pdb 

> <AUTHOR>
    GENERATED BY OPEN BABEL 3.1.0

> <MASTER>
        0    0    0    0    0    0    0    0   43    0   43    0

> <minimizedAffinity>
-6.42112

> <CNNscore>
0.1554239988

> <CNNaffinity>
4.0796175003

> <CNN_VS>
0.6340704560

> <CNNaffinity_variance>
0.1890716553

$$$$



 35 37  0  0  0  0  0  0  0  0999 V2000
   24.4953  -11.8764  -15.8892 C   0  0  0  0  0  0  0  0  0  0  0  0
   23.9693  -13.0152  -16.5389 O   0  0  0  0  0  0  0  0  0  0  0  0
   22.8091  -13.4068  -15.8413 C   0  0  0  0  0  0  0  0  0  0  0  0
   22.2690  -12.1886  -15.1024 C   0  0  0  0  0  0  0  0  0  0  0  0
   21.5841  -12.5551  -13.9327 O   0  0  0  0  0  0  0  0  0  0  0  0
   23.5273  -11.4104  -14.7970 C   0  0  0  0  0  0  0  0  0  0  0  0
   24.0427  -11.7536  -13.5334 O   0  0  0  0  0  0  0  0  0  0  0  0
   20.6845  -12.8650  -14.2156 H   0  0  0  0  0  0  0  0  0  0  0  0
   23.5780  -11.1806  -12.8690 H   0  0  0  0  0  0  0  0  0  0  0  0
   24.4567   -7.7179  -20.3440 N   0  0  0  0  0  0  0  0  0  0  0  0
   23.9574   -8.8944  -19.7077 C   0  0  0  0  0  0  0  0  0  0  0  0
   22.9099   -9.5850  -20.2491 N   0  0  0  0  0  0  0  0  0  0  0  0
   22.4217  -10.7217  -19.6560 C   0  0  0  0  0  0  0  0  0  0  0  0
   22.9806  -11.1963  -18.5024 N   0  0  0  0  0  0  0  0  0  0  0  0
   24.0196  -10.5114  -17.9698 C   0  0  0  0  0  0  0  0  0  0  0  0
   24.5189   -9.3882  -18.5346 C   0  0  0  0  0  0  0  0  0  0  0  0
   25.5460   -8.9093  -17.8096 N   0  0  0  0  0  0  0  0  0  0  0  0
   25.6348   -9.8052  -16.7866 C   0  0  0  0  0  0  0  0  0  0  0  0
   24.7209  -10.8080  -16.8666 N   0  0  0  0  0  0  0  0  0  0  0  0
   25.2670   -7.1920  -19.9433 H   0  0  0  0  0  0  0  0  0  0  0  0
   24.0062   -7.3630  -21.2177 H   0  0  0  0  0  0  0  0  0  0  0  0
   21.7836  -13.9883  -16.8188 C   0  0  0  0  0  0  0  0  0  0  0  0
   22.3966  -15.0011  -17.5821 O   0  0  0  0  0  0  0  0  0  0  0  0
   21.3580  -16.3539  -17.6243 P   0  0  0  0  0  0  0  0  0  0  0  0
   19.9208  -15.8975  -17.5093 O   0  0  0  0  0  0  0  0  0  0  0  0
   21.7042  -17.3533  -16.3031 O   0  0  0  0  0  0  0  0  0  0  0  0
   21.5441  -17.2089  -19.0867 O   0  0  0  0  0  0  0  0  0  0  0  0
   22.1094  -16.1123  -20.2606 P   0  0  0  0  0  0  0  0  0  0  0  0
   21.2222  -14.8867  -20.2685 O   0  0  0  0  0  0  0  0  0  0  0  0
   23.6783  -15.6508  -19.8251 O   0  0  0  0  0  0  0  0  0  0  0  0
   22.1170  -16.8492  -21.7986 O   0  0  0  0  0  0  0  0  0  0  0  0
   23.6193  -16.5387  -22.5458 P   0  0  0  0  0  0  0  0  0  0  0  0
   23.3911  -16.5819  -24.2213 O   0  0  0  0  0  0  0  0  0  0  0  0
   24.2367  -15.0158  -22.1330 O   0  0  0  0  0  0  0  0  0  0  0  0
   24.7670  -17.7585  -22.1174 S   0  0  0  0  0  0  0  0  0  0  0  0
 10 11  1  0  0  0
 10 20  1  0  0  0
 10 21  1  0  0  0
 11 12  2  0  0  0
 11 16  1  0  0  0
 12 13  1  0  0  0
 13 14  2  0  0  0
 14 15  1  0  0  0
 15 16  2  0  0  0
 15 19  1  0  0  0
 16 17  1  0  0  0
 17 18  2  0  0  0
 18 19  1  0  0  0
 19  1  1  0  0  0
  1  2  1  0  0  0
  1  6  1  0  0  0
  2  3  1  0  0  0
  3 22  1  0  0  0
  3  4  1  0  0  0
 22 23  1  0  0  0
 23 24  1  0  0  0
 24 25  2  0  0  0
 24 26  1  0  0  0
 24 27  1  0  0  0
 27 28  1  0  0  0
 28 29  2  0  0  0
 28 30  1  0  0  0
 28 31  1  0  0  0
 31 32  1  0  0  0
 32 33  1  0  0  0
 32 34  1  0  0  0
 32 35  2  0  0  0
  4  5  1  0  0  0
  4  6  1  0  0  0
  5  8  1  0  0  0
  6  7  1  0  0  0
  7  9  1  0  0  0
M  CHG 1  26  -1
M  CHG 1  30  -1
M  CHG 1  33  -1
M  CHG 1  34  -1
M  END
> <COMPND>
    ../0-casp/DBelp1.pdb 

> <AUTHOR>
    GENERATED BY OPEN BABEL 3.1.0

> <MASTER>
        0    0    0    0    0    0    0    0   43    0   43    0

> <minimizedAffinity>
-8.60126

> <CNNscore>
0.1537497491

> <CNNaffinity>
4.5333371162

> <CNN_VS>
0.6969994307

> <CNNaffinity_variance>
0.4720679224

$$$$



 35 37  0  0  0  0  0  0  0  0999 V2000
   44.1455   10.3075    8.9416 C   0  0  0  0  0  0  0  0  0  0  0  0
   43.3694    9.7671    9.9910 O   0  0  0  0  0  0  0  0  0  0  0  0
   42.7121   10.8373   10.6305 C   0  0  0  0  0  0  0  0  0  0  0  0
   42.6080   11.9882    9.6373 C   0  0  0  0  0  0  0  0  0  0  0  0
   42.5979   13.2327   10.2875 O   0  0  0  0  0  0  0  0  0  0  0  0
   43.8488   11.8034    8.7956 C   0  0  0  0  0  0  0  0  0  0  0  0
   44.9261   12.5493    9.3084 O   0  0  0  0  0  0  0  0  0  0  0  0
   41.6778   13.3632   10.6366 H   0  0  0  0  0  0  0  0  0  0  0  0
   44.8523   13.4615    8.9232 H   0  0  0  0  0  0  0  0  0  0  0  0
   43.1082    8.3292    3.2715 N   0  0  0  0  0  0  0  0  0  0  0  0
   43.2880    9.3662    4.2362 C   0  0  0  0  0  0  0  0  0  0  0  0
   43.2306   10.6794    3.8625 N   0  0  0  0  0  0  0  0  0  0  0  0
   43.3934   11.6894    4.7767 C   0  0  0  0  0  0  0  0  0  0  0  0
   43.6134   11.4022    6.0949 N   0  0  0  0  0  0  0  0  0  0  0  0
   43.6673   10.1005    6.4623 C   0  0  0  0  0  0  0  0  0  0  0  0
   43.5106    9.0867    5.5806 C   0  0  0  0  0  0  0  0  0  0  0  0
   43.6052    7.8980    6.2034 N   0  0  0  0  0  0  0  0  0  0  0  0
   43.8232    8.2551    7.5004 C   0  0  0  0  0  0  0  0  0  0  0  0
   43.8510    9.6003    7.6923 N   0  0  0  0  0  0  0  0  0  0  0  0
   43.1367    7.3222    3.5523 H   0  0  0  0  0  0  0  0  0  0  0  0
   42.9555    8.5693    2.2660 H   0  0  0  0  0  0  0  0  0  0  0  0
   41.3378   10.3821   11.1299 C   0  0  0  0  0  0  0  0  0  0  0  0
   41.1456   10.8518   12.4439 O   0  0  0  0  0  0  0  0  0  0  0  0
   39.9175   12.0358   12.4237 P   0  0  0  0  0  0  0  0  0  0  0  0
   39.1768   11.9802   11.1064 O   0  0  0  0  0  0  0  0  0  0  0  0
   40.6271   13.5655   12.5686 O   0  0  0  0  0  0  0  0  0  0  0  0
   38.8054   11.7697   13.6872 O   0  0  0  0  0  0  0  0  0  0  0  0
   39.5881   10.8399   14.8801 P   0  0  0  0  0  0  0  0  0  0  0  0
   40.9321   11.4593   15.1950 O   0  0  0  0  0  0  0  0  0  0  0  0
   38.6291   10.8727   16.2742 O   0  0  0  0  0  0  0  0  0  0  0  0
   39.7866    9.2349   14.3387 O   0  0  0  0  0  0  0  0  0  0  0  0
   40.9576    8.4695   15.3157 P   0  0  0  0  0  0  0  0  0  0  0  0
   42.4867    8.9597   14.7841 O   0  0  0  0  0  0  0  0  0  0  0  0
   40.8027    8.8915   16.9495 O   0  0  0  0  0  0  0  0  0  0  0  0
   40.8456    6.7520   15.1538 S   0  0  0  0  0  0  0  0  0  0  0  0
 10 11  1  0  0  0
 10 20  1  0  0  0
 10 21  1  0  0  0
 11 12  2  0  0  0
 11 16  1  0  0  0
 12 13  1  0  0  0
 13 14  2  0  0  0
 14 15  1  0  0  0
 15 16  2  0  0  0
 15 19  1  0  0  0
 16 17  1  0  0  0
 17 18  2  0  0  0
 18 19  1  0  0  0
 19  1  1  0  0  0
  1  2  1  0  0  0
  1  6  1  0  0  0
  2  3  1  0  0  0
  3 22  1  0  0  0
  3  4  1  0  0  0
 22 23  1  0  0  0
 23 24  1  0  0  0
 24 25  2  0  0  0
 24 26  1  0  0  0
 24 27  1  0  0  0
 27 28  1  0  0  0
 28 29  2  0  0  0
 28 30  1  0  0  0
 28 31  1  0  0  0
 31 32  1  0  0  0
 32 33  1  0  0  0
 32 34  1  0  0  0
 32 35  2  0  0  0
  4  5  1  0  0  0
  4  6  1  0  0  0
  5  8  1  0  0  0
  6  7  1  0  0  0
  7  9  1  0  0  0
M  CHG 1  26  -1
M  CHG 1  30  -1
M  CHG 1  33  -1
M  CHG 1  34  -1
M  END
> <COMPND>
    ../0-casp/DBelp1.pdb 

> <AUTHOR>
    GENERATED BY OPEN BABEL 3.1.0

> <MASTER>
        0    0    0    0    0    0    0    0   43    0   43    0

> <minimizedAffinity>
-7.10944

> <CNNscore>
0.1495293379

> <CNNaffinity>
3.8053703308

> <CNN_VS>
0.5690144897

> <CNNaffinity_variance>
0.5558536053

$$$$



 35 37  0  0  0  0  0  0  0  0999 V2000
   -6.4066   20.8588  -11.2570 C   0  0  0  0  0  0  0  0  0  0  0  0
   -5.1419   20.9343  -11.8821 O   0  0  0  0  0  0  0  0  0  0  0  0
   -4.3820   19.8318  -11.4424 C   0  0  0  0  0  0  0  0  0  0  0  0
   -5.3477   18.7415  -10.9948 C   0  0  0  0  0  0  0  0  0  0  0  0
   -4.7887   17.9368   -9.9891 O   0  0  0  0  0  0  0  0  0  0  0  0
   -6.5253   19.5399  -10.4867 C   0  0  0  0  0  0  0  0  0  0  0  0
   -6.4124   19.7891   -9.1064 O   0  0  0  0  0  0  0  0  0  0  0  0
   -4.1761   17.3005  -10.4423 H   0  0  0  0  0  0  0  0  0  0  0  0
   -6.7992   19.0022   -8.6405 H   0  0  0  0  0  0  0  0  0  0  0  0
  -10.9102   22.3160  -15.0954 N   0  0  0  0  0  0  0  0  0  0  0  0
  -10.1024   22.5579  -13.9434 C   0  0  0  0  0  0  0  0  0  0  0  0
  -10.3101   23.6652  -13.1699 N   0  0  0  0  0  0  0  0  0  0  0  0
   -9.5489   23.9101  -12.0551 C   0  0  0  0  0  0  0  0  0  0  0  0
   -8.5599   23.0414  -11.6866 N   0  0  0  0  0  0  0  0  0  0  0  0
   -8.3581   21.9444  -12.4534 C   0  0  0  0  0  0  0  0  0  0  0  0
   -9.0943   21.6805  -13.5572 C   0  0  0  0  0  0  0  0  0  0  0  0
   -8.6930   20.5319  -14.1312 N   0  0  0  0  0  0  0  0  0  0  0  0
   -7.6830   20.1239  -13.3123 C   0  0  0  0  0  0  0  0  0  0  0  0
   -7.4649   20.9627  -12.2654 N   0  0  0  0  0  0  0  0  0  0  0  0
  -10.7665   21.4637  -15.6841 H   0  0  0  0  0  0  0  0  0  0  0  0
  -11.6518   22.9998  -15.3686 H   0  0  0  0  0  0  0  0  0  0  0  0
   -3.4562   19.3550  -12.5653 C   0  0  0  0  0  0  0  0  0  0  0  0
   -2.1184   19.5847  -12.1889 O   0  0  0  0  0  0  0  0  0  0  0  0
   -1.5171   18.1783  -11.4333 P   0  0  0  0  0  0  0  0  0  0  0  0
   -2.2874   16.9702  -11.9172 O   0  0  0  0  0  0  0  0  0  0  0  0
   -1.7411   18.3148   -9.7613 O   0  0  0  0  0  0  0  0  0  0  0  0
    0.1323   17.9573  -11.8003 O   0  0  0  0  0  0  0  0  0  0  0  0
    0.4791   18.8661  -13.1982 P   0  0  0  0  0  0  0  0  0  0  0  0
    0.4704   20.3390  -12.8521 O   0  0  0  0  0  0  0  0  0  0  0  0
    2.0290   18.4357  -13.7243 O   0  0  0  0  0  0  0  0  0  0  0  0
   -0.6695   18.5355  -14.4147 O   0  0  0  0  0  0  0  0  0  0  0  0
   -0.2716   17.0493  -15.1526 P   0  0  0  0  0  0  0  0  0  0  0  0
    0.8777   17.3519  -16.3562 O   0  0  0  0  0  0  0  0  0  0  0  0
    0.3907   15.9451  -14.0512 O   0  0  0  0  0  0  0  0  0  0  0  0
   -1.6699   16.3526  -15.8929 S   0  0  0  0  0  0  0  0  0  0  0  0
 10 11  1  0  0  0
 10 20  1  0  0  0
 10 21  1  0  0  0
 11 12  2  0  0  0
 11 16  1  0  0  0
 12 13  1  0  0  0
 13 14  2  0  0  0
 14 15  1  0  0  0
 15 16  2  0  0  0
 15 19  1  0  0  0
 16 17  1  0  0  0
 17 18  2  0  0  0
 18 19  1  0  0  0
 19  1  1  0  0  0
  1  2  1  0  0  0
  1  6  1  0  0  0
  2  3  1  0  0  0
  3 22  1  0  0  0
  3  4  1  0  0  0
 22 23  1  0  0  0
 23 24  1  0  0  0
 24 25  2  0  0  0
 24 26  1  0  0  0
 24 27  1  0  0  0
 27 28  1  0  0  0
 28 29  2  0  0  0
 28 30  1  0  0  0
 28 31  1  0  0  0
 31 32  1  0  0  0
 32 33  1  0  0  0
 32 34  1  0  0  0
 32 35  2  0  0  0
  4  5  1  0  0  0
  4  6  1  0  0  0
  5  8  1  0  0  0
  6  7  1  0  0  0
  7  9  1  0  0  0
M  CHG 1  26  -1
M  CHG 1  30  -1
M  CHG 1  33  -1
M  CHG 1  34  -1
M  END
> <COMPND>
    ../0-casp/DBelp1.pdb 

> <AUTHOR>
    GENERATED BY OPEN BABEL 3.1.0

> <MASTER>
        0    0    0    0    0    0    0    0   43    0   43    0

> <minimizedAffinity>
-6.57784

> <CNNscore>
0.1476821303

> <CNNaffinity>
4.3216857910

> <CNN_VS>
0.6382357478

> <CNNaffinity_variance>
0.1618787795

$$$$



 35 37  0  0  0  0  0  0  0  0999 V2000
  -32.6495   15.1264    0.9098 C   0  0  0  0  0  0  0  0  0  0  0  0
  -32.9865   15.3436   -0.4449 O   0  0  0  0  0  0  0  0  0  0  0  0
  -32.4296   14.2902   -1.1974 C   0  0  0  0  0  0  0  0  0  0  0  0
  -32.2343   13.0984   -0.2683 C   0  0  0  0  0  0  0  0  0  0  0  0
  -31.1583   12.2945   -0.6778 O   0  0  0  0  0  0  0  0  0  0  0  0
  -31.9650   13.7642    1.0609 C   0  0  0  0  0  0  0  0  0  0  0  0
  -30.5853   13.9507    1.2652 O   0  0  0  0  0  0  0  0  0  0  0  0
  -31.4898   11.7382   -1.4301 H   0  0  0  0  0  0  0  0  0  0  0  0
  -30.2385   13.1102    1.6641 H   0  0  0  0  0  0  0  0  0  0  0  0
  -37.4113   16.4402    4.4789 N   0  0  0  0  0  0  0  0  0  0  0  0
  -36.1361   16.7390    3.9106 C   0  0  0  0  0  0  0  0  0  0  0  0
  -35.4929   17.9038    4.2225 N   0  0  0  0  0  0  0  0  0  0  0  0
  -34.2638   18.2044    3.6921 C   0  0  0  0  0  0  0  0  0  0  0  0
  -33.6470   17.3353    2.8362 N   0  0  0  0  0  0  0  0  0  0  0  0
  -34.2855   16.1814    2.5311 C   0  0  0  0  0  0  0  0  0  0  0  0
  -35.4975   15.8620    3.0400 C   0  0  0  0  0  0  0  0  0  0  0  0
  -35.9037   14.6644    2.5808 N   0  0  0  0  0  0  0  0  0  0  0  0
  -34.8716   14.2859    1.7754 C   0  0  0  0  0  0  0  0  0  0  0  0
  -33.8573   15.1898    1.7373 N   0  0  0  0  0  0  0  0  0  0  0  0
  -37.9032   15.5447    4.2561 H   0  0  0  0  0  0  0  0  0  0  0  0
  -37.8729   17.1244    5.1200 H   0  0  0  0  0  0  0  0  0  0  0  0
  -33.3427   13.9541   -2.3801 C   0  0  0  0  0  0  0  0  0  0  0  0
  -32.7191   12.9778   -3.1814 O   0  0  0  0  0  0  0  0  0  0  0  0
  -33.7848   11.6572   -3.3571 P   0  0  0  0  0  0  0  0  0  0  0  0
  -34.9937   11.8557   -2.4705 O   0  0  0  0  0  0  0  0  0  0  0  0
  -32.9936   10.2440   -2.8659 O   0  0  0  0  0  0  0  0  0  0  0  0
  -34.3092   11.5190   -4.9727 O   0  0  0  0  0  0  0  0  0  0  0  0
  -33.0029   10.9312   -5.8937 P   0  0  0  0  0  0  0  0  0  0  0  0
  -31.7127   11.5152   -5.3613 O   0  0  0  0  0  0  0  0  0  0  0  0
  -32.9584    9.2489   -5.7145 O   0  0  0  0  0  0  0  0  0  0  0  0
  -33.2080   11.3441   -7.5357 O   0  0  0  0  0  0  0  0  0  0  0  0
  -34.3811   10.3091   -8.2169 P   0  0  0  0  0  0  0  0  0  0  0  0
  -33.5810    8.9786   -8.8883 O   0  0  0  0  0  0  0  0  0  0  0  0
  -35.4809    9.7395   -7.0606 O   0  0  0  0  0  0  0  0  0  0  0  0
  -35.2423   11.1231   -9.4757 S   0  0  0  0  0  0  0  0  0  0  0  0
 10 11  1  0  0  0
 10 20  1  0  0  0
 10 21  1  0  0  0
 11 12  2  0  0  0
 11 16  1  0  0  0
 12 13  1  0  0  0
 13 14  2  0  0  0
 14 15  1  0  0  0
 15 16  2  0  0  0
 15 19  1  0  0  0
 16 17  1  0  0  0
 17 18  2  0  0  0
 18 19  1  0  0  0
 19  1  1  0  0  0
  1  2  1  0  0  0
  1  6  1  0  0  0
  2  3  1  0  0  0
  3 22  1  0  0  0
  3  4  1  0  0  0
 22 23  1  0  0  0
 23 24  1  0  0  0
 24 25  2  0  0  0
 24 26  1  0  0  0
 24 27  1  0  0  0
 27 28  1  0  0  0
 28 29  2  0  0  0
 28 30  1  0  0  0
 28 31  1  0  0  0
 31 32  1  0  0  0
 32 33  1  0  0  0
 32 34  1  0  0  0
 32 35  2  0  0  0
  4  5  1  0  0  0
  4  6  1  0  0  0
  5  8  1  0  0  0
  6  7  1  0  0  0
  7  9  1  0  0  0
M  CHG 1  26  -1
M  CHG 1  30  -1
M  CHG 1  33  -1
M  CHG 1  34  -1
M  END
> <COMPND>
    ../0-casp/DBelp1.pdb 

> <AUTHOR>
    GENERATED BY OPEN BABEL 3.1.0

> <MASTER>
        0    0    0    0    0    0    0    0   43    0   43    0

> <minimizedAffinity>
-7.03746

> <CNNscore>
0.1444881856

> <CNNaffinity>
3.9277617931

> <CNN_VS>
0.5675151944

> <CNNaffinity_variance>
0.3205977678

$$$$



 35 37  0  0  0  0  0  0  0  0999 V2000
  -34.0741   15.2842   -0.0528 C   0  0  0  0  0  0  0  0  0  0  0  0
  -34.7506   14.1058   -0.4392 O   0  0  0  0  0  0  0  0  0  0  0  0
  -33.7766   13.1248   -0.7130 C   0  0  0  0  0  0  0  0  0  0  0  0
  -32.5103   13.4907    0.0515 C   0  0  0  0  0  0  0  0  0  0  0  0
  -31.3582   13.0299   -0.6058 O   0  0  0  0  0  0  0  0  0  0  0  0
  -32.5747   14.9998    0.0821 C   0  0  0  0  0  0  0  0  0  0  0  0
  -31.8891   15.5598   -1.0116 O   0  0  0  0  0  0  0  0  0  0  0  0
  -31.2821   12.0618   -0.4002 H   0  0  0  0  0  0  0  0  0  0  0  0
  -30.9363   15.6374   -0.7433 H   0  0  0  0  0  0  0  0  0  0  0  0
  -37.2458   16.7890    4.9287 N   0  0  0  0  0  0  0  0  0  0  0  0
  -37.1453   16.2737    3.6010 C   0  0  0  0  0  0  0  0  0  0  0  0
  -38.2583   15.8344    2.9409 N   0  0  0  0  0  0  0  0  0  0  0  0
  -38.1823   15.3431    1.6622 C   0  0  0  0  0  0  0  0  0  0  0  0
  -36.9813   15.2863    1.0118 N   0  0  0  0  0  0  0  0  0  0  0  0
  -35.8811   15.7244    1.6675 C   0  0  0  0  0  0  0  0  0  0  0  0
  -35.9294   16.2125    2.9281 C   0  0  0  0  0  0  0  0  0  0  0  0
  -34.7029   16.5797    3.3416 N   0  0  0  0  0  0  0  0  0  0  0  0
  -33.9227   16.2883    2.2629 C   0  0  0  0  0  0  0  0  0  0  0  0
  -34.6204   15.7764    1.2148 N   0  0  0  0  0  0  0  0  0  0  0  0
  -36.4008   17.1401    5.4350 H   0  0  0  0  0  0  0  0  0  0  0  0
  -38.1711   16.8106    5.4141 H   0  0  0  0  0  0  0  0  0  0  0  0
  -34.3049   11.7414   -0.3225 C   0  0  0  0  0  0  0  0  0  0  0  0
  -34.5522   10.9952   -1.4914 O   0  0  0  0  0  0  0  0  0  0  0  0
  -36.2390   10.8237   -1.6802 P   0  0  0  0  0  0  0  0  0  0  0  0
  -36.8252   12.1088   -2.2204 O   0  0  0  0  0  0  0  0  0  0  0  0
  -36.9328   10.5198   -0.1667 O   0  0  0  0  0  0  0  0  0  0  0  0
  -36.5967    9.5609   -2.7672 O   0  0  0  0  0  0  0  0  0  0  0  0
  -36.4022    8.0884   -1.9340 P   0  0  0  0  0  0  0  0  0  0  0  0
  -36.2830    6.9596   -2.9345 O   0  0  0  0  0  0  0  0  0  0  0  0
  -34.9674    8.1840   -1.0417 O   0  0  0  0  0  0  0  0  0  0  0  0
  -37.7270    7.8217   -0.8937 O   0  0  0  0  0  0  0  0  0  0  0  0
  -39.0468    7.2653   -1.8212 P   0  0  0  0  0  0  0  0  0  0  0  0
  -39.1074    8.1746   -3.2462 O   0  0  0  0  0  0  0  0  0  0  0  0
  -38.8906    5.6309   -2.2402 O   0  0  0  0  0  0  0  0  0  0  0  0
  -40.5273    7.4976   -0.9594 S   0  0  0  0  0  0  0  0  0  0  0  0
 10 11  1  0  0  0
 10 20  1  0  0  0
 10 21  1  0  0  0
 11 12  2  0  0  0
 11 16  1  0  0  0
 12 13  1  0  0  0
 13 14  2  0  0  0
 14 15  1  0  0  0
 15 16  2  0  0  0
 15 19  1  0  0  0
 16 17  1  0  0  0
 17 18  2  0  0  0
 18 19  1  0  0  0
 19  1  1  0  0  0
  1  2  1  0  0  0
  1  6  1  0  0  0
  2  3  1  0  0  0
  3 22  1  0  0  0
  3  4  1  0  0  0
 22 23  1  0  0  0
 23 24  1  0  0  0
 24 25  2  0  0  0
 24 26  1  0  0  0
 24 27  1  0  0  0
 27 28  1  0  0  0
 28 29  2  0  0  0
 28 30  1  0  0  0
 28 31  1  0  0  0
 31 32  1  0  0  0
 32 33  1  0  0  0
 32 34  1  0  0  0
 32 35  2  0  0  0
  4  5  1  0  0  0
  4  6  1  0  0  0
  5  8  1  0  0  0
  6  7  1  0  0  0
  7  9  1  0  0  0
M  CHG 1  26  -1
M  CHG 1  30  -1
M  CHG 1  33  -1
M  CHG 1  34  -1
M  END
> <COMPND>
    ../0-casp/DBelp1.pdb 

> <AUTHOR>
    GENERATED BY OPEN BABEL 3.1.0

> <MASTER>
        0    0    0    0    0    0    0    0   43    0   43    0

> <minimizedAffinity>
-6.50391

> <CNNscore>
0.1411032677

> <CNNaffinity>
4.0534033775

> <CNN_VS>
0.5719484687

> <CNNaffinity_variance>
0.4001747668

$$$$



 35 37  0  0  0  0  0  0  0  0999 V2000
  -16.4019    9.9604   -8.4782 C   0  0  0  0  0  0  0  0  0  0  0  0
  -16.9392    9.6660   -9.7511 O   0  0  0  0  0  0  0  0  0  0  0  0
  -16.3294   10.5306  -10.6821 C   0  0  0  0  0  0  0  0  0  0  0  0
  -14.9908   10.9757  -10.1063 C   0  0  0  0  0  0  0  0  0  0  0  0
  -14.6276   12.2510  -10.5684 O   0  0  0  0  0  0  0  0  0  0  0  0
  -15.2598   10.9717   -8.6197 C   0  0  0  0  0  0  0  0  0  0  0  0
  -15.6928   12.2357   -8.1785 O   0  0  0  0  0  0  0  0  0  0  0  0
  -14.2678   12.1288  -11.4854 H   0  0  0  0  0  0  0  0  0  0  0  0
  -14.8765   12.7673   -7.9863 H   0  0  0  0  0  0  0  0  0  0  0  0
  -15.1805    5.0356   -5.1027 N   0  0  0  0  0  0  0  0  0  0  0  0
  -15.7961    6.3074   -5.3080 C   0  0  0  0  0  0  0  0  0  0  0  0
  -16.5593    6.8756   -4.3271 N   0  0  0  0  0  0  0  0  0  0  0  0
  -17.1523    8.1001   -4.5035 C   0  0  0  0  0  0  0  0  0  0  0  0
  -16.9871    8.7881   -5.6731 N   0  0  0  0  0  0  0  0  0  0  0  0
  -16.2286    8.2237   -6.6418 C   0  0  0  0  0  0  0  0  0  0  0  0
  -15.6339    7.0179   -6.4928 C   0  0  0  0  0  0  0  0  0  0  0  0
  -14.9394    6.6921   -7.5980 N   0  0  0  0  0  0  0  0  0  0  0  0
  -15.1481    7.7657   -8.4111 C   0  0  0  0  0  0  0  0  0  0  0  0
  -15.9228    8.7285   -7.8454 N   0  0  0  0  0  0  0  0  0  0  0  0
  -14.5836    4.6009   -5.8431 H   0  0  0  0  0  0  0  0  0  0  0  0
  -15.3309    4.5189   -4.2068 H   0  0  0  0  0  0  0  0  0  0  0  0
  -16.1685    9.8183  -12.0283 C   0  0  0  0  0  0  0  0  0  0  0  0
  -15.5063   10.6763  -12.9279 O   0  0  0  0  0  0  0  0  0  0  0  0
  -16.1112   10.3901  -14.4972 P   0  0  0  0  0  0  0  0  0  0  0  0
  -15.6597    9.0291  -14.9776 O   0  0  0  0  0  0  0  0  0  0  0  0
  -15.4839   11.5584  -15.5489 O   0  0  0  0  0  0  0  0  0  0  0  0
  -17.8148   10.4335  -14.5018 O   0  0  0  0  0  0  0  0  0  0  0  0
  -18.2925   12.0661  -14.4209 P   0  0  0  0  0  0  0  0  0  0  0  0
  -17.4350   12.7884  -13.4049 O   0  0  0  0  0  0  0  0  0  0  0  0
  -18.0363   12.7567  -15.9446 O   0  0  0  0  0  0  0  0  0  0  0  0
  -19.9396   12.1765  -13.9928 O   0  0  0  0  0  0  0  0  0  0  0  0
  -20.8862   11.8622  -15.3773 P   0  0  0  0  0  0  0  0  0  0  0  0
  -20.7888   13.2085  -16.3966 O   0  0  0  0  0  0  0  0  0  0  0  0
  -20.3375   10.5068  -16.2335 O   0  0  0  0  0  0  0  0  0  0  0  0
  -22.5408   11.6293  -14.9337 S   0  0  0  0  0  0  0  0  0  0  0  0
 10 11  1  0  0  0
 10 20  1  0  0  0
 10 21  1  0  0  0
 11 12  2  0  0  0
 11 16  1  0  0  0
 12 13  1  0  0  0
 13 14  2  0  0  0
 14 15  1  0  0  0
 15 16  2  0  0  0
 15 19  1  0  0  0
 16 17  1  0  0  0
 17 18  2  0  0  0
 18 19  1  0  0  0
 19  1  1  0  0  0
  1  2  1  0  0  0
  1  6  1  0  0  0
  2  3  1  0  0  0
  3 22  1  0  0  0
  3  4  1  0  0  0
 22 23  1  0  0  0
 23 24  1  0  0  0
 24 25  2  0  0  0
 24 26  1  0  0  0
 24 27  1  0  0  0
 27 28  1  0  0  0
 28 29  2  0  0  0
 28 30  1  0  0  0
 28 31  1  0  0  0
 31 32  1  0  0  0
 32 33  1  0  0  0
 32 34  1  0  0  0
 32 35  2  0  0  0
  4  5  1  0  0  0
  4  6  1  0  0  0
  5  8  1  0  0  0
  6  7  1  0  0  0
  7  9  1  0  0  0
M  CHG 1  26  -1
M  CHG 1  30  -1
M  CHG 1  33  -1
M  CHG 1  34  -1
M  END
> <COMPND>
    ../0-casp/DBelp1.pdb 

> <AUTHOR>
    GENERATED BY OPEN BABEL 3.1.0

> <MASTER>
        0    0    0    0    0    0    0    0   43    0   43    0

> <minimizedAffinity>
-6.84489

> <CNNscore>
0.1379415393

> <CNNaffinity>
4.3361496925

> <CNN_VS>
0.5981351733

> <CNNaffinity_variance>
0.1508052647

$$$$
