


 35 37  0  0  0  0  0  0  0  0999 V2000
   -5.8893   22.5156    2.6703 C   0  0  0  0  0  0  0  0  0  0  0  0
   -5.3101   21.8200    3.7545 O   0  0  0  0  0  0  0  0  0  0  0  0
   -4.6165   20.7120    3.2291 C   0  0  0  0  0  0  0  0  0  0  0  0
   -4.2641   21.0209    1.7790 C   0  0  0  0  0  0  0  0  0  0  0  0
   -4.1889   19.8508    1.0053 O   0  0  0  0  0  0  0  0  0  0  0  0
   -5.4087   21.9075    1.3492 C   0  0  0  0  0  0  0  0  0  0  0  0
   -6.4469   21.1528    0.7726 O   0  0  0  0  0  0  0  0  0  0  0  0
   -3.3081   19.4371    1.2003 H   0  0  0  0  0  0  0  0  0  0  0  0
   -6.2240   21.0459   -0.1891 H   0  0  0  0  0  0  0  0  0  0  0  0
   -4.2446   28.2228    4.0350 N   0  0  0  0  0  0  0  0  0  0  0  0
   -4.6640   26.9071    4.3962 C   0  0  0  0  0  0  0  0  0  0  0  0
   -4.8407   26.5710    5.7089 N   0  0  0  0  0  0  0  0  0  0  0  0
   -5.2519   25.3143    6.0746 C   0  0  0  0  0  0  0  0  0  0  0  0
   -5.5005   24.3627    5.1249 N   0  0  0  0  0  0  0  0  0  0  0  0
   -5.3269   24.6999    3.8252 C   0  0  0  0  0  0  0  0  0  0  0  0
   -4.9228   25.9315    3.4385 C   0  0  0  0  0  0  0  0  0  0  0  0
   -4.8334   26.0019    2.0983 N   0  0  0  0  0  0  0  0  0  0  0  0
   -5.2078   24.7513    1.7061 C   0  0  0  0  0  0  0  0  0  0  0  0
   -5.5313   23.9353    2.7434 N   0  0  0  0  0  0  0  0  0  0  0  0
   -4.1199   28.4921    3.0316 H   0  0  0  0  0  0  0  0  0  0  0  0
   -4.0447   28.9324    4.7762 H   0  0  0  0  0  0  0  0  0  0  0  0
   -3.3717   20.4270    4.0747 C   0  0  0  0  0  0  0  0  0  0  0  0
   -3.7171   20.4881    5.4391 O   0  0  0  0  0  0  0  0  0  0  0  0
   -2.3694   19.9973    6.3643 P   0  0  0  0  0  0  0  0  0  0  0  0
   -2.2658   20.8519    7.6075 O   0  0  0  0  0  0  0  0  0  0  0  0
   -0.9647   20.2199    5.4487 O   0  0  0  0  0  0  0  0  0  0  0  0
   -2.5262   18.3663    6.8349 O   0  0  0  0  0  0  0  0  0  0  0  0
   -3.5148   18.3203    8.2209 P   0  0  0  0  0  0  0  0  0  0  0  0
   -4.6428   19.3163    8.0624 O   0  0  0  0  0  0  0  0  0  0  0  0
   -4.1693   16.7645    8.3385 O   0  0  0  0  0  0  0  0  0  0  0  0
   -2.5957   18.6801    9.6111 O   0  0  0  0  0  0  0  0  0  0  0  0
   -1.1416   17.7889    9.5490 P   0  0  0  0  0  0  0  0  0  0  0  0
   -1.4678   16.3005    8.8157 O   0  0  0  0  0  0  0  0  0  0  0  0
    0.0542   18.5768    8.6435 O   0  0  0  0  0  0  0  0  0  0  0  0
   -0.5496   17.4940   11.1464 S   0  0  0  0  0  0  0  0  0  0  0  0
  1 19  1  0  0  0
  1  2  1  0  0  0
  1  6  1  0  0  0
  2  3  1  0  0  0
  3 22  1  0  0  0
  3  4  1  0  0  0
  4  5  1  0  0  0
  4  6  1  0  0  0
  5  8  1  0  0  0
  6  7  1  0  0  0
  7  9  1  0  0  0
 10 11  1  0  0  0
 10 20  1  0  0  0
 10 21  1  0  0  0
 11 12  2  0  0  0
 11 16  1  0  0  0
 12 13  1  0  0  0
 13 14  2  0  0  0
 14 15  1  0  0  0
 15 16  2  0  0  0
 15 19  1  0  0  0
 16 17  1  0  0  0
 17 18  2  0  0  0
 18 19  1  0  0  0
 22 23  1  0  0  0
 23 24  1  0  0  0
 24 25  2  0  0  0
 24 26  1  0  0  0
 24 27  1  0  0  0
 27 28  1  0  0  0
 28 29  2  0  0  0
 28 30  1  0  0  0
 28 31  1  0  0  0
 31 32  1  0  0  0
 32 33  1  0  0  0
 32 34  1  0  0  0
 32 35  2  0  0  0
M  CHG 1  26  -1
M  CHG 1  30  -1
M  CHG 1  33  -1
M  CHG 1  34  -1
M  END
> <COMPND>
../0-casp/DBelp1.pdb

> <AUTHOR>
GENERATED BY OPEN BABEL 3.1.0

> <MASTER>
        0    0    0    0    0    0    0    0   35    0   35    0

> <minimizedAffinity>
-9.79997

> <CNNscore>
0.6273977757

> <CNNaffinity>
4.7830591202

> <CNN_VS>
3.0008807182

> <CNNaffinity_variance>
0.5019108653

$$$$



 35 37  0  0  0  0  0  0  0  0999 V2000
   -3.3513   25.5885    6.0664 C   0  0  0  0  0  0  0  0  0  0  0  0
   -2.8110   26.7227    6.7116 O   0  0  0  0  0  0  0  0  0  0  0  0
   -1.4669   26.4371    7.0225 C   0  0  0  0  0  0  0  0  0  0  0  0
   -0.9817   25.3547    6.0659 C   0  0  0  0  0  0  0  0  0  0  0  0
    0.0209   24.5619    6.6488 O   0  0  0  0  0  0  0  0  0  0  0  0
   -2.2423   24.5652    5.8035 C   0  0  0  0  0  0  0  0  0  0  0  0
   -2.3669   23.4929    6.7060 O   0  0  0  0  0  0  0  0  0  0  0  0
    0.8640   25.0825    6.5919 H   0  0  0  0  0  0  0  0  0  0  0  0
   -1.8601   22.7318    6.3190 H   0  0  0  0  0  0  0  0  0  0  0  0
   -5.2461   28.0390    0.8181 N   0  0  0  0  0  0  0  0  0  0  0  0
   -4.4861   28.0689    2.0260 C   0  0  0  0  0  0  0  0  0  0  0  0
   -3.7064   29.1495    2.3286 N   0  0  0  0  0  0  0  0  0  0  0  0
   -2.9759   29.2000    3.4888 C   0  0  0  0  0  0  0  0  0  0  0  0
   -3.0157   28.1626    4.3784 N   0  0  0  0  0  0  0  0  0  0  0  0
   -3.7912   27.0946    4.0766 C   0  0  0  0  0  0  0  0  0  0  0  0
   -4.5209   27.0205    2.9400 C   0  0  0  0  0  0  0  0  0  0  0  0
   -5.2002   25.8608    2.8878 N   0  0  0  0  0  0  0  0  0  0  0  0
   -4.8411   25.2495    4.0519 C   0  0  0  0  0  0  0  0  0  0  0  0
   -3.9895   25.9897    4.8091 N   0  0  0  0  0  0  0  0  0  0  0  0
   -5.8559   27.2212    0.5855 H   0  0  0  0  0  0  0  0  0  0  0  0
   -5.1910   28.8352    0.1430 H   0  0  0  0  0  0  0  0  0  0  0  0
   -0.6256   27.7129    6.9208 C   0  0  0  0  0  0  0  0  0  0  0  0
    0.1116   27.6849    5.7206 O   0  0  0  0  0  0  0  0  0  0  0  0
    1.1993   29.0002    5.7189 P   0  0  0  0  0  0  0  0  0  0  0  0
    0.4571   30.2761    6.0474 O   0  0  0  0  0  0  0  0  0  0  0  0
    1.8675   29.1578    4.1730 O   0  0  0  0  0  0  0  0  0  0  0  0
    2.4248   28.7673    6.8808 O   0  0  0  0  0  0  0  0  0  0  0  0
    3.3258   27.3990    6.4157 P   0  0  0  0  0  0  0  0  0  0  0  0
    2.4174   26.4233    5.6998 O   0  0  0  0  0  0  0  0  0  0  0  0
    4.5314   27.9123    5.3455 O   0  0  0  0  0  0  0  0  0  0  0  0
    4.0266   26.6631    7.7847 O   0  0  0  0  0  0  0  0  0  0  0  0
    4.0417   27.7933    9.0634 P   0  0  0  0  0  0  0  0  0  0  0  0
    2.4408   28.2033    9.4219 O   0  0  0  0  0  0  0  0  0  0  0  0
    4.7561   27.1648   10.4652 O   0  0  0  0  0  0  0  0  0  0  0  0
    4.8805   29.2280    8.5865 S   0  0  0  0  0  0  0  0  0  0  0  0
  1 19  1  0  0  0
  1  2  1  0  0  0
  1  6  1  0  0  0
  2  3  1  0  0  0
  3 22  1  0  0  0
  3  4  1  0  0  0
  4  5  1  0  0  0
  4  6  1  0  0  0
  5  8  1  0  0  0
  6  7  1  0  0  0
  7  9  1  0  0  0
 10 11  1  0  0  0
 10 20  1  0  0  0
 10 21  1  0  0  0
 11 12  2  0  0  0
 11 16  1  0  0  0
 12 13  1  0  0  0
 13 14  2  0  0  0
 14 15  1  0  0  0
 15 16  2  0  0  0
 15 19  1  0  0  0
 16 17  1  0  0  0
 17 18  2  0  0  0
 18 19  1  0  0  0
 22 23  1  0  0  0
 23 24  1  0  0  0
 24 25  2  0  0  0
 24 26  1  0  0  0
 24 27  1  0  0  0
 27 28  1  0  0  0
 28 29  2  0  0  0
 28 30  1  0  0  0
 28 31  1  0  0  0
 31 32  1  0  0  0
 32 33  1  0  0  0
 32 34  1  0  0  0
 32 35  2  0  0  0
M  CHG 1  26  -1
M  CHG 1  30  -1
M  CHG 1  33  -1
M  CHG 1  34  -1
M  END
> <COMPND>
../0-casp/DBelp1.pdb

> <AUTHOR>
GENERATED BY OPEN BABEL 3.1.0

> <MASTER>
        0    0    0    0    0    0    0    0   35    0   35    0

> <minimizedAffinity>
-8.67477

> <CNNscore>
0.3708058298

> <CNNaffinity>
4.7434649467

> <CNN_VS>
1.7589044571

> <CNNaffinity_variance>
0.3620667160

$$$$



 35 37  0  0  0  0  0  0  0  0999 V2000
   -3.2396   24.3628    4.0971 C   0  0  0  0  0  0  0  0  0  0  0  0
   -3.5746   23.4610    3.0631 O   0  0  0  0  0  0  0  0  0  0  0  0
   -4.3048   22.4030    3.6395 C   0  0  0  0  0  0  0  0  0  0  0  0
   -4.9356   22.9134    4.9293 C   0  0  0  0  0  0  0  0  0  0  0  0
   -5.1027   21.8804    5.8666 O   0  0  0  0  0  0  0  0  0  0  0  0
   -3.9317   23.9405    5.3966 C   0  0  0  0  0  0  0  0  0  0  0  0
   -2.9876   23.3678    6.2686 O   0  0  0  0  0  0  0  0  0  0  0  0
   -5.9125   21.3762    5.5925 H   0  0  0  0  0  0  0  0  0  0  0  0
   -3.3815   23.4003    7.1795 H   0  0  0  0  0  0  0  0  0  0  0  0
   -3.8657   30.2709    2.7398 N   0  0  0  0  0  0  0  0  0  0  0  0
   -3.1561   29.1739    3.3146 C   0  0  0  0  0  0  0  0  0  0  0  0
   -1.9530   29.3724    3.9313 N   0  0  0  0  0  0  0  0  0  0  0  0
   -1.2608   28.3318    4.4972 C   0  0  0  0  0  0  0  0  0  0  0  0
   -1.7661   27.0619    4.4601 N   0  0  0  0  0  0  0  0  0  0  0  0
   -2.9595   26.8692    3.8504 C   0  0  0  0  0  0  0  0  0  0  0  0
   -3.6616   27.8780    3.2855 C   0  0  0  0  0  0  0  0  0  0  0  0
   -4.8082   27.4176    2.7539 N   0  0  0  0  0  0  0  0  0  0  0  0
   -4.7553   26.0846    3.0337 C   0  0  0  0  0  0  0  0  0  0  0  0
   -3.6396   25.7216    3.7194 N   0  0  0  0  0  0  0  0  0  0  0  0
   -4.7937   30.1294    2.2776 H   0  0  0  0  0  0  0  0  0  0  0  0
   -3.4561   31.2323    2.7647 H   0  0  0  0  0  0  0  0  0  0  0  0
   -5.3557   21.8938    2.6484 C   0  0  0  0  0  0  0  0  0  0  0  0
   -4.7297   21.6061    1.4195 O   0  0  0  0  0  0  0  0  0  0  0  0
   -4.4746   19.9215    1.3197 P   0  0  0  0  0  0  0  0  0  0  0  0
   -5.5892   19.1936    2.0369 O   0  0  0  0  0  0  0  0  0  0  0  0
   -3.0144   19.5413    2.0840 O   0  0  0  0  0  0  0  0  0  0  0  0
   -4.4497   19.4135   -0.3074 O   0  0  0  0  0  0  0  0  0  0  0  0
   -6.0597   19.1344   -0.7873 P   0  0  0  0  0  0  0  0  0  0  0  0
   -6.5617   17.8646   -0.1353 O   0  0  0  0  0  0  0  0  0  0  0  0
   -6.9946   20.4361   -0.2448 O   0  0  0  0  0  0  0  0  0  0  0  0
   -6.1539   19.0076   -2.4850 O   0  0  0  0  0  0  0  0  0  0  0  0
   -4.7155   18.2904   -3.0586 P   0  0  0  0  0  0  0  0  0  0  0  0
   -3.5237   19.4879   -3.1324 O   0  0  0  0  0  0  0  0  0  0  0  0
   -4.1649   17.0548   -2.0385 O   0  0  0  0  0  0  0  0  0  0  0  0
   -4.9537   17.6567   -4.6495 S   0  0  0  0  0  0  0  0  0  0  0  0
  1 19  1  0  0  0
  1  2  1  0  0  0
  1  6  1  0  0  0
  2  3  1  0  0  0
  3 22  1  0  0  0
  3  4  1  0  0  0
  4  5  1  0  0  0
  4  6  1  0  0  0
  5  8  1  0  0  0
  6  7  1  0  0  0
  7  9  1  0  0  0
 10 11  1  0  0  0
 10 20  1  0  0  0
 10 21  1  0  0  0
 11 12  2  0  0  0
 11 16  1  0  0  0
 12 13  1  0  0  0
 13 14  2  0  0  0
 14 15  1  0  0  0
 15 16  2  0  0  0
 15 19  1  0  0  0
 16 17  1  0  0  0
 17 18  2  0  0  0
 18 19  1  0  0  0
 22 23  1  0  0  0
 23 24  1  0  0  0
 24 25  2  0  0  0
 24 26  1  0  0  0
 24 27  1  0  0  0
 27 28  1  0  0  0
 28 29  2  0  0  0
 28 30  1  0  0  0
 28 31  1  0  0  0
 31 32  1  0  0  0
 32 33  1  0  0  0
 32 34  1  0  0  0
 32 35  2  0  0  0
M  CHG 1  26  -1
M  CHG 1  30  -1
M  CHG 1  33  -1
M  CHG 1  34  -1
M  END
> <COMPND>
../0-casp/DBelp1.pdb

> <AUTHOR>
GENERATED BY OPEN BABEL 3.1.0

> <MASTER>
        0    0    0    0    0    0    0    0   35    0   35    0

> <minimizedAffinity>
-9.05016

> <CNNscore>
0.3506239057

> <CNNaffinity>
4.5619211197

> <CNN_VS>
1.5995186567

> <CNNaffinity_variance>
0.4971485138

$$$$



 35 37  0  0  0  0  0  0  0  0999 V2000
   -4.5023   22.3792    5.5684 C   0  0  0  0  0  0  0  0  0  0  0  0
   -4.0146   21.7332    4.4110 O   0  0  0  0  0  0  0  0  0  0  0  0
   -4.9433   20.7351    4.0559 C   0  0  0  0  0  0  0  0  0  0  0  0
   -6.2979   21.1240    4.6356 C   0  0  0  0  0  0  0  0  0  0  0  0
   -7.0817   19.9935    4.9203 O   0  0  0  0  0  0  0  0  0  0  0  0
   -5.9111   21.8713    5.8898 C   0  0  0  0  0  0  0  0  0  0  0  0
   -5.8590   21.0079    6.9996 O   0  0  0  0  0  0  0  0  0  0  0  0
   -7.4648   19.6885    4.0571 H   0  0  0  0  0  0  0  0  0  0  0  0
   -6.7804   20.9553    7.3658 H   0  0  0  0  0  0  0  0  0  0  0  0
   -4.9546   28.1677    3.7170 N   0  0  0  0  0  0  0  0  0  0  0  0
   -4.9450   26.7606    3.4774 C   0  0  0  0  0  0  0  0  0  0  0  0
   -5.1166   26.2708    2.2133 N   0  0  0  0  0  0  0  0  0  0  0  0
   -5.1015   24.9221    1.9624 C   0  0  0  0  0  0  0  0  0  0  0  0
   -4.9083   24.0300    2.9804 N   0  0  0  0  0  0  0  0  0  0  0  0
   -4.7361   24.5189    4.2311 C   0  0  0  0  0  0  0  0  0  0  0  0
   -4.7464   25.8435    4.5047 C   0  0  0  0  0  0  0  0  0  0  0  0
   -4.5507   26.0577    5.8181 N   0  0  0  0  0  0  0  0  0  0  0  0
   -4.4199   24.7942    6.3124 C   0  0  0  0  0  0  0  0  0  0  0  0
   -4.5138   23.8301    5.3594 N   0  0  0  0  0  0  0  0  0  0  0  0
   -4.8106   28.5512    4.6798 H   0  0  0  0  0  0  0  0  0  0  0  0
   -5.1189   28.8337    2.9282 H   0  0  0  0  0  0  0  0  0  0  0  0
   -4.9918   20.5861    2.5323 C   0  0  0  0  0  0  0  0  0  0  0  0
   -5.8545   19.5231    2.2000 O   0  0  0  0  0  0  0  0  0  0  0  0
   -5.8998   19.3695    0.5008 P   0  0  0  0  0  0  0  0  0  0  0  0
   -6.7433   20.4773   -0.0890 O   0  0  0  0  0  0  0  0  0  0  0  0
   -6.6144   17.8890    0.1024 O   0  0  0  0  0  0  0  0  0  0  0  0
   -4.3290   19.4724   -0.1535 O   0  0  0  0  0  0  0  0  0  0  0  0
   -3.7210   17.8875   -0.2915 P   0  0  0  0  0  0  0  0  0  0  0  0
   -4.4413   17.1729   -1.4140 O   0  0  0  0  0  0  0  0  0  0  0  0
   -2.0769   17.9954   -0.6757 O   0  0  0  0  0  0  0  0  0  0  0  0
   -3.9295   17.0476    1.1776 O   0  0  0  0  0  0  0  0  0  0  0  0
   -3.7927   15.3741    0.8729 P   0  0  0  0  0  0  0  0  0  0  0  0
   -5.3104   14.8004    0.3963 O   0  0  0  0  0  0  0  0  0  0  0  0
   -2.6846   15.0367   -0.3637 O   0  0  0  0  0  0  0  0  0  0  0  0
   -3.3188   14.5389    2.3107 S   0  0  0  0  0  0  0  0  0  0  0  0
  1 19  1  0  0  0
  1  2  1  0  0  0
  1  6  1  0  0  0
  2  3  1  0  0  0
  3 22  1  0  0  0
  3  4  1  0  0  0
  4  5  1  0  0  0
  4  6  1  0  0  0
  5  8  1  0  0  0
  6  7  1  0  0  0
  7  9  1  0  0  0
 10 11  1  0  0  0
 10 20  1  0  0  0
 10 21  1  0  0  0
 11 12  2  0  0  0
 11 16  1  0  0  0
 12 13  1  0  0  0
 13 14  2  0  0  0
 14 15  1  0  0  0
 15 16  2  0  0  0
 15 19  1  0  0  0
 16 17  1  0  0  0
 17 18  2  0  0  0
 18 19  1  0  0  0
 22 23  1  0  0  0
 23 24  1  0  0  0
 24 25  2  0  0  0
 24 26  1  0  0  0
 24 27  1  0  0  0
 27 28  1  0  0  0
 28 29  2  0  0  0
 28 30  1  0  0  0
 28 31  1  0  0  0
 31 32  1  0  0  0
 32 33  1  0  0  0
 32 34  1  0  0  0
 32 35  2  0  0  0
M  CHG 1  26  -1
M  CHG 1  30  -1
M  CHG 1  33  -1
M  CHG 1  34  -1
M  END
> <COMPND>
../0-casp/DBelp1.pdb

> <AUTHOR>
GENERATED BY OPEN BABEL 3.1.0

> <MASTER>
        0    0    0    0    0    0    0    0   35    0   35    0

> <minimizedAffinity>
-9.31554

> <CNNscore>
0.3375521302

> <CNNaffinity>
4.6240005493

> <CNN_VS>
1.5608412027

> <CNNaffinity_variance>
0.7362726331

$$$$



 35 37  0  0  0  0  0  0  0  0999 V2000
   -0.3233   25.3708    4.3948 C   0  0  0  0  0  0  0  0  0  0  0  0
   -1.3343   24.4685    4.7930 O   0  0  0  0  0  0  0  0  0  0  0  0
   -1.0259   24.0300    6.0959 C   0  0  0  0  0  0  0  0  0  0  0  0
   -0.1436   25.0851    6.7519 C   0  0  0  0  0  0  0  0  0  0  0  0
    0.7198   24.5174    7.7036 O   0  0  0  0  0  0  0  0  0  0  0  0
    0.6123   25.6532    5.5742 C   0  0  0  0  0  0  0  0  0  0  0  0
    1.8318   24.9787    5.3802 O   0  0  0  0  0  0  0  0  0  0  0  0
    0.1797   24.3651    8.5223 H   0  0  0  0  0  0  0  0  0  0  0  0
    2.5001   25.4192    5.9678 H   0  0  0  0  0  0  0  0  0  0  0  0
   -3.7878   30.0890    2.6989 N   0  0  0  0  0  0  0  0  0  0  0  0
   -3.6103   28.7327    3.1067 C   0  0  0  0  0  0  0  0  0  0  0  0
   -4.6872   27.9028    3.2439 N   0  0  0  0  0  0  0  0  0  0  0  0
   -4.5354   26.5940    3.6262 C   0  0  0  0  0  0  0  0  0  0  0  0
   -3.2914   26.0849    3.8765 N   0  0  0  0  0  0  0  0  0  0  0  0
   -2.2264   26.9093    3.7371 C   0  0  0  0  0  0  0  0  0  0  0  0
   -2.3492   28.2029    3.3613 C   0  0  0  0  0  0  0  0  0  0  0  0
   -1.1428   28.7942    3.2969 N   0  0  0  0  0  0  0  0  0  0  0  0
   -0.2952   27.7868    3.6499 C   0  0  0  0  0  0  0  0  0  0  0  0
   -0.9305   26.6142    3.9108 N   0  0  0  0  0  0  0  0  0  0  0  0
   -2.9673   30.7271    2.5786 H   0  0  0  0  0  0  0  0  0  0  0  0
   -4.7481   30.4643    2.5267 H   0  0  0  0  0  0  0  0  0  0  0  0
   -2.3167   23.7893    6.8844 C   0  0  0  0  0  0  0  0  0  0  0  0
   -2.4380   22.4135    7.1621 O   0  0  0  0  0  0  0  0  0  0  0  0
   -3.9344   21.8648    6.5516 P   0  0  0  0  0  0  0  0  0  0  0  0
   -4.1254   22.3705    5.1394 O   0  0  0  0  0  0  0  0  0  0  0  0
   -5.1802   22.4874    7.5115 O   0  0  0  0  0  0  0  0  0  0  0  0
   -3.9866   20.1609    6.5327 O   0  0  0  0  0  0  0  0  0  0  0  0
   -2.3954   19.5968    6.3084 P   0  0  0  0  0  0  0  0  0  0  0  0
   -2.4349   18.1372    5.9113 O   0  0  0  0  0  0  0  0  0  0  0  0
   -1.7023   20.4893    5.0492 O   0  0  0  0  0  0  0  0  0  0  0  0
   -1.4926   19.7984    7.7407 O   0  0  0  0  0  0  0  0  0  0  0  0
   -1.9494   18.5833    8.8485 P   0  0  0  0  0  0  0  0  0  0  0  0
   -3.6380   18.4950    8.8657 O   0  0  0  0  0  0  0  0  0  0  0  0
   -1.3420   17.0617    8.4167 O   0  0  0  0  0  0  0  0  0  0  0  0
   -1.4062   18.9866   10.4396 S   0  0  0  0  0  0  0  0  0  0  0  0
  1 19  1  0  0  0
  1  2  1  0  0  0
  1  6  1  0  0  0
  2  3  1  0  0  0
  3 22  1  0  0  0
  3  4  1  0  0  0
  4  5  1  0  0  0
  4  6  1  0  0  0
  5  8  1  0  0  0
  6  7  1  0  0  0
  7  9  1  0  0  0
 10 11  1  0  0  0
 10 20  1  0  0  0
 10 21  1  0  0  0
 11 12  2  0  0  0
 11 16  1  0  0  0
 12 13  1  0  0  0
 13 14  2  0  0  0
 14 15  1  0  0  0
 15 16  2  0  0  0
 15 19  1  0  0  0
 16 17  1  0  0  0
 17 18  2  0  0  0
 18 19  1  0  0  0
 22 23  1  0  0  0
 23 24  1  0  0  0
 24 25  2  0  0  0
 24 26  1  0  0  0
 24 27  1  0  0  0
 27 28  1  0  0  0
 28 29  2  0  0  0
 28 30  1  0  0  0
 28 31  1  0  0  0
 31 32  1  0  0  0
 32 33  1  0  0  0
 32 34  1  0  0  0
 32 35  2  0  0  0
M  CHG 1  26  -1
M  CHG 1  30  -1
M  CHG 1  33  -1
M  CHG 1  34  -1
M  END
> <COMPND>
../0-casp/DBelp1.pdb

> <AUTHOR>
GENERATED BY OPEN BABEL 3.1.0

> <MASTER>
        0    0    0    0    0    0    0    0   35    0   35    0

> <minimizedAffinity>
-8.23743

> <CNNscore>
0.3042455018

> <CNNaffinity>
4.4799242020

> <CNN_VS>
1.3629968166

> <CNNaffinity_variance>
0.4606596828

$$$$



 35 37  0  0  0  0  0  0  0  0999 V2000
   -0.3174   25.6628    4.1720 C   0  0  0  0  0  0  0  0  0  0  0  0
   -1.2691   24.6836    4.5330 O   0  0  0  0  0  0  0  0  0  0  0  0
   -0.8957   24.1686    5.7901 C   0  0  0  0  0  0  0  0  0  0  0  0
   -0.0442   25.2175    6.4952 C   0  0  0  0  0  0  0  0  0  0  0  0
    0.8775   24.6275    7.3759 O   0  0  0  0  0  0  0  0  0  0  0  0
    0.6427   25.9069    5.3402 C   0  0  0  0  0  0  0  0  0  0  0  0
    1.8864   25.3113    5.0603 O   0  0  0  0  0  0  0  0  0  0  0  0
    0.3736   24.3893    8.1971 H   0  0  0  0  0  0  0  0  0  0  0  0
    2.5519   25.7420    5.6582 H   0  0  0  0  0  0  0  0  0  0  0  0
   -4.0690   30.2885    2.8804 N   0  0  0  0  0  0  0  0  0  0  0  0
   -3.8063   28.9135    3.1595 C   0  0  0  0  0  0  0  0  0  0  0  0
   -4.8275   28.0064    3.1999 N   0  0  0  0  0  0  0  0  0  0  0  0
   -4.5935   26.6794    3.4579 C   0  0  0  0  0  0  0  0  0  0  0  0
   -3.3211   26.2301    3.6779 N   0  0  0  0  0  0  0  0  0  0  0  0
   -2.3114   27.1312    3.6346 C   0  0  0  0  0  0  0  0  0  0  0  0
   -2.5156   28.4443    3.3821 C   0  0  0  0  0  0  0  0  0  0  0  0
   -1.3502   29.1158    3.3933 N   0  0  0  0  0  0  0  0  0  0  0  0
   -0.4414   28.1360    3.6617 C   0  0  0  0  0  0  0  0  0  0  0  0
   -1.0006   26.9052    3.7995 N   0  0  0  0  0  0  0  0  0  0  0  0
   -3.2912   30.9869    2.8343 H   0  0  0  0  0  0  0  0  0  0  0  0
   -5.0502   30.6158    2.7298 H   0  0  0  0  0  0  0  0  0  0  0  0
   -2.1458   23.8061    6.5974 C   0  0  0  0  0  0  0  0  0  0  0  0
   -2.1194   22.4295    6.8953 O   0  0  0  0  0  0  0  0  0  0  0  0
   -3.7007   21.8074    6.7356 P   0  0  0  0  0  0  0  0  0  0  0  0
   -3.8481   21.1277    5.3929 O   0  0  0  0  0  0  0  0  0  0  0  0
   -4.8038   23.0878    6.8063 O   0  0  0  0  0  0  0  0  0  0  0  0
   -4.0247   20.6687    7.9621 O   0  0  0  0  0  0  0  0  0  0  0  0
   -2.5318   20.0578    8.5087 P   0  0  0  0  0  0  0  0  0  0  0  0
   -1.6382   19.7858    7.3183 O   0  0  0  0  0  0  0  0  0  0  0  0
   -1.8104   21.2434    9.4765 O   0  0  0  0  0  0  0  0  0  0  0  0
   -2.7744   18.6297    9.4079 O   0  0  0  0  0  0  0  0  0  0  0  0
   -1.3698   18.3181   10.3257 P   0  0  0  0  0  0  0  0  0  0  0  0
   -0.0251   18.7206    9.3825 O   0  0  0  0  0  0  0  0  0  0  0  0
   -1.3165   19.2385   11.7473 O   0  0  0  0  0  0  0  0  0  0  0  0
   -1.2746   16.6389   10.7262 S   0  0  0  0  0  0  0  0  0  0  0  0
  1 19  1  0  0  0
  1  2  1  0  0  0
  1  6  1  0  0  0
  2  3  1  0  0  0
  3 22  1  0  0  0
  3  4  1  0  0  0
  4  5  1  0  0  0
  4  6  1  0  0  0
  5  8  1  0  0  0
  6  7  1  0  0  0
  7  9  1  0  0  0
 10 11  1  0  0  0
 10 20  1  0  0  0
 10 21  1  0  0  0
 11 12  2  0  0  0
 11 16  1  0  0  0
 12 13  1  0  0  0
 13 14  2  0  0  0
 14 15  1  0  0  0
 15 16  2  0  0  0
 15 19  1  0  0  0
 16 17  1  0  0  0
 17 18  2  0  0  0
 18 19  1  0  0  0
 22 23  1  0  0  0
 23 24  1  0  0  0
 24 25  2  0  0  0
 24 26  1  0  0  0
 24 27  1  0  0  0
 27 28  1  0  0  0
 28 29  2  0  0  0
 28 30  1  0  0  0
 28 31  1  0  0  0
 31 32  1  0  0  0
 32 33  1  0  0  0
 32 34  1  0  0  0
 32 35  2  0  0  0
M  CHG 1  26  -1
M  CHG 1  30  -1
M  CHG 1  33  -1
M  CHG 1  34  -1
M  END
> <COMPND>
../0-casp/DBelp1.pdb

> <AUTHOR>
GENERATED BY OPEN BABEL 3.1.0

> <MASTER>
        0    0    0    0    0    0    0    0   35    0   35    0

> <minimizedAffinity>
-9.27801

> <CNNscore>
0.2160228938

> <CNNaffinity>
4.4658265114

> <CNN_VS>
0.9647207856

> <CNNaffinity_variance>
0.2874447703

$$$$



 35 37  0  0  0  0  0  0  0  0999 V2000
   -5.8577   21.5248    2.6794 C   0  0  0  0  0  0  0  0  0  0  0  0
   -5.2359   20.9089    3.7879 O   0  0  0  0  0  0  0  0  0  0  0  0
   -4.5247   19.7901    3.3110 C   0  0  0  0  0  0  0  0  0  0  0  0
   -4.2133   20.0225    1.8375 C   0  0  0  0  0  0  0  0  0  0  0  0
   -4.1240   18.8115    1.1312 O   0  0  0  0  0  0  0  0  0  0  0  0
   -5.3907   20.8530    1.3846 C   0  0  0  0  0  0  0  0  0  0  0  0
   -6.4208   20.0395    0.8777 O   0  0  0  0  0  0  0  0  0  0  0  0
   -3.2282   18.4326    1.3287 H   0  0  0  0  0  0  0  0  0  0  0  0
   -6.2168   19.8823   -0.0812 H   0  0  0  0  0  0  0  0  0  0  0  0
   -4.5008   27.3793    3.6912 N   0  0  0  0  0  0  0  0  0  0  0  0
   -4.9407   26.0909    4.1200 C   0  0  0  0  0  0  0  0  0  0  0  0
   -5.2794   25.8725    5.4258 N   0  0  0  0  0  0  0  0  0  0  0  0
   -5.7128   24.6434    5.8546 C   0  0  0  0  0  0  0  0  0  0  0  0
   -5.8205   23.6013    4.9761 N   0  0  0  0  0  0  0  0  0  0  0  0
   -5.4865   23.8220    3.6827 C   0  0  0  0  0  0  0  0  0  0  0  0
   -5.0570   25.0239    3.2348 C   0  0  0  0  0  0  0  0  0  0  0  0
   -4.7967   24.9727    1.9161 N   0  0  0  0  0  0  0  0  0  0  0  0
   -5.0959   23.6809    1.6007 C   0  0  0  0  0  0  0  0  0  0  0  0
   -5.5365   22.9550    2.6616 N   0  0  0  0  0  0  0  0  0  0  0  0
   -4.2524   27.5582    2.6907 H   0  0  0  0  0  0  0  0  0  0  0  0
   -4.4103   28.1598    4.3806 H   0  0  0  0  0  0  0  0  0  0  0  0
   -3.2540   19.5870    4.1417 C   0  0  0  0  0  0  0  0  0  0  0  0
   -3.4051   20.2371    5.3823 O   0  0  0  0  0  0  0  0  0  0  0  0
   -2.1588   21.3915    5.5473 P   0  0  0  0  0  0  0  0  0  0  0  0
   -0.8378   20.7771    5.1422 O   0  0  0  0  0  0  0  0  0  0  0  0
   -2.0525   21.8561    7.1703 O   0  0  0  0  0  0  0  0  0  0  0  0
   -2.4585   22.7446    4.5547 O   0  0  0  0  0  0  0  0  0  0  0  0
   -1.5726   24.0554    5.1853 P   0  0  0  0  0  0  0  0  0  0  0  0
   -2.2388   24.5440    6.4530 O   0  0  0  0  0  0  0  0  0  0  0  0
   -0.0201   23.4979    5.5614 O   0  0  0  0  0  0  0  0  0  0  0  0
   -1.4857   25.3131    4.0373 O   0  0  0  0  0  0  0  0  0  0  0  0
   -0.9010   26.7176    4.8106 P   0  0  0  0  0  0  0  0  0  0  0  0
   -2.1697   27.3953    5.6998 O   0  0  0  0  0  0  0  0  0  0  0  0
    0.3729   26.3793    5.8752 O   0  0  0  0  0  0  0  0  0  0  0  0
   -0.3758   27.8741    3.6377 S   0  0  0  0  0  0  0  0  0  0  0  0
  1 19  1  0  0  0
  1  2  1  0  0  0
  1  6  1  0  0  0
  2  3  1  0  0  0
  3 22  1  0  0  0
  3  4  1  0  0  0
  4  5  1  0  0  0
  4  6  1  0  0  0
  5  8  1  0  0  0
  6  7  1  0  0  0
  7  9  1  0  0  0
 10 11  1  0  0  0
 10 20  1  0  0  0
 10 21  1  0  0  0
 11 12  2  0  0  0
 11 16  1  0  0  0
 12 13  1  0  0  0
 13 14  2  0  0  0
 14 15  1  0  0  0
 15 16  2  0  0  0
 15 19  1  0  0  0
 16 17  1  0  0  0
 17 18  2  0  0  0
 18 19  1  0  0  0
 22 23  1  0  0  0
 23 24  1  0  0  0
 24 25  2  0  0  0
 24 26  1  0  0  0
 24 27  1  0  0  0
 27 28  1  0  0  0
 28 29  2  0  0  0
 28 30  1  0  0  0
 28 31  1  0  0  0
 31 32  1  0  0  0
 32 33  1  0  0  0
 32 34  1  0  0  0
 32 35  2  0  0  0
M  CHG 1  26  -1
M  CHG 1  30  -1
M  CHG 1  33  -1
M  CHG 1  34  -1
M  END
> <COMPND>
../0-casp/DBelp1.pdb

> <AUTHOR>
GENERATED BY OPEN BABEL 3.1.0

> <MASTER>
        0    0    0    0    0    0    0    0   35    0   35    0

> <minimizedAffinity>
-9.28887

> <CNNscore>
0.2124078423

> <CNNaffinity>
4.4608049393

> <CNN_VS>
0.9475099444

> <CNNaffinity_variance>
0.8265479803

$$$$



 35 37  0  0  0  0  0  0  0  0999 V2000
   -3.5436   22.0989    3.9533 C   0  0  0  0  0  0  0  0  0  0  0  0
   -3.2517   21.2384    5.0345 O   0  0  0  0  0  0  0  0  0  0  0  0
   -2.7162   20.0494    4.5011 C   0  0  0  0  0  0  0  0  0  0  0  0
   -2.1263   20.3703    3.1332 C   0  0  0  0  0  0  0  0  0  0  0  0
   -2.1722   19.2575    2.2770 O   0  0  0  0  0  0  0  0  0  0  0  0
   -3.0180   21.4894    2.6501 C   0  0  0  0  0  0  0  0  0  0  0  0
   -4.0954   20.9904    1.8951 O   0  0  0  0  0  0  0  0  0  0  0  0
   -1.4178   18.6674    2.5371 H   0  0  0  0  0  0  0  0  0  0  0  0
   -3.7733   20.9002    0.9602 H   0  0  0  0  0  0  0  0  0  0  0  0
   -1.9992   27.9548    4.6343 N   0  0  0  0  0  0  0  0  0  0  0  0
   -2.8616   26.9216    4.1587 C   0  0  0  0  0  0  0  0  0  0  0  0
   -3.9974   27.2306    3.4646 N   0  0  0  0  0  0  0  0  0  0  0  0
   -4.8337   26.2510    2.9920 C   0  0  0  0  0  0  0  0  0  0  0  0
   -4.5444   24.9316    3.2031 N   0  0  0  0  0  0  0  0  0  0  0  0
   -3.4169   24.6289    3.8890 C   0  0  0  0  0  0  0  0  0  0  0  0
   -2.5761   25.5756    4.3649 C   0  0  0  0  0  0  0  0  0  0  0  0
   -1.5363   25.0085    5.0026 N   0  0  0  0  0  0  0  0  0  0  0  0
   -1.7985   23.6766    4.8795 C   0  0  0  0  0  0  0  0  0  0  0  0
   -2.9379   23.4132    4.1875 N   0  0  0  0  0  0  0  0  0  0  0  0
   -1.1209   27.7261    5.1549 H   0  0  0  0  0  0  0  0  0  0  0  0
   -2.2451   28.9584    4.4763 H   0  0  0  0  0  0  0  0  0  0  0  0
   -1.6681   19.4740    5.4582 C   0  0  0  0  0  0  0  0  0  0  0  0
   -1.6752   20.2205    6.6530 O   0  0  0  0  0  0  0  0  0  0  0  0
   -2.2050   19.2105    7.9227 P   0  0  0  0  0  0  0  0  0  0  0  0
   -2.7468   17.9183    7.3543 O   0  0  0  0  0  0  0  0  0  0  0  0
   -3.4539   19.9880    8.7576 O   0  0  0  0  0  0  0  0  0  0  0  0
   -0.9160   18.8450    8.9768 O   0  0  0  0  0  0  0  0  0  0  0  0
   -1.5766   18.5448   10.5176 P   0  0  0  0  0  0  0  0  0  0  0  0
   -1.9138   19.8623   11.1810 O   0  0  0  0  0  0  0  0  0  0  0  0
   -3.0010   17.6567   10.3062 O   0  0  0  0  0  0  0  0  0  0  0  0
   -0.4695   17.6659   11.4710 O   0  0  0  0  0  0  0  0  0  0  0  0
   -0.0943   16.2084   10.6665 P   0  0  0  0  0  0  0  0  0  0  0  0
   -0.0316   14.9725   11.8191 O   0  0  0  0  0  0  0  0  0  0  0  0
   -1.2612   15.7970    9.5090 O   0  0  0  0  0  0  0  0  0  0  0  0
    1.4531   16.3247    9.9041 S   0  0  0  0  0  0  0  0  0  0  0  0
  1 19  1  0  0  0
  1  2  1  0  0  0
  1  6  1  0  0  0
  2  3  1  0  0  0
  3 22  1  0  0  0
  3  4  1  0  0  0
  4  5  1  0  0  0
  4  6  1  0  0  0
  5  8  1  0  0  0
  6  7  1  0  0  0
  7  9  1  0  0  0
 10 11  1  0  0  0
 10 20  1  0  0  0
 10 21  1  0  0  0
 11 12  2  0  0  0
 11 16  1  0  0  0
 12 13  1  0  0  0
 13 14  2  0  0  0
 14 15  1  0  0  0
 15 16  2  0  0  0
 15 19  1  0  0  0
 16 17  1  0  0  0
 17 18  2  0  0  0
 18 19  1  0  0  0
 22 23  1  0  0  0
 23 24  1  0  0  0
 24 25  2  0  0  0
 24 26  1  0  0  0
 24 27  1  0  0  0
 27 28  1  0  0  0
 28 29  2  0  0  0
 28 30  1  0  0  0
 28 31  1  0  0  0
 31 32  1  0  0  0
 32 33  1  0  0  0
 32 34  1  0  0  0
 32 35  2  0  0  0
M  CHG 1  26  -1
M  CHG 1  30  -1
M  CHG 1  33  -1
M  CHG 1  34  -1
M  END
> <COMPND>
../0-casp/DBelp1.pdb

> <AUTHOR>
GENERATED BY OPEN BABEL 3.1.0

> <MASTER>
        0    0    0    0    0    0    0    0   35    0   35    0

> <minimizedAffinity>
-8.52726

> <CNNscore>
0.2042284757

> <CNNaffinity>
4.3226857185

> <CNN_VS>
0.8828155398

> <CNNaffinity_variance>
0.3241516948

$$$$



 35 37  0  0  0  0  0  0  0  0999 V2000
   -0.9154   26.3821    4.1149 C   0  0  0  0  0  0  0  0  0  0  0  0
   -1.8405   25.3627    4.4310 O   0  0  0  0  0  0  0  0  0  0  0  0
   -1.4021   24.7414    5.6171 C   0  0  0  0  0  0  0  0  0  0  0  0
   -0.5256   25.7331    6.3725 C   0  0  0  0  0  0  0  0  0  0  0  0
    0.4427   25.0777    7.1511 O   0  0  0  0  0  0  0  0  0  0  0  0
    0.0986   26.5320    5.2530 C   0  0  0  0  0  0  0  0  0  0  0  0
    1.3318   25.9794    4.8612 O   0  0  0  0  0  0  0  0  0  0  0  0
   -0.0187   24.7604    7.9706 H   0  0  0  0  0  0  0  0  0  0  0  0
    2.0223   26.3628    5.4630 H   0  0  0  0  0  0  0  0  0  0  0  0
   -4.7568   31.0028    3.0988 N   0  0  0  0  0  0  0  0  0  0  0  0
   -4.4241   29.6148    3.1130 C   0  0  0  0  0  0  0  0  0  0  0  0
   -5.3390   28.6780    2.7222 N   0  0  0  0  0  0  0  0  0  0  0  0
   -5.0345   27.3403    2.7207 C   0  0  0  0  0  0  0  0  0  0  0  0
   -3.7960   26.9111    3.1097 N   0  0  0  0  0  0  0  0  0  0  0  0
   -2.8913   27.8421    3.4940 C   0  0  0  0  0  0  0  0  0  0  0  0
   -3.1664   29.1665    3.5041 C   0  0  0  0  0  0  0  0  0  0  0  0
   -2.0986   29.8691    3.9229 N   0  0  0  0  0  0  0  0  0  0  0  0
   -1.1728   28.8969    4.1585 C   0  0  0  0  0  0  0  0  0  0  0  0
   -1.6258   27.6444    3.8893 N   0  0  0  0  0  0  0  0  0  0  0  0
   -4.0576   31.7273    3.3838 H   0  0  0  0  0  0  0  0  0  0  0  0
   -5.7139   31.3107    2.8126 H   0  0  0  0  0  0  0  0  0  0  0  0
   -2.6084   24.2924    6.4472 C   0  0  0  0  0  0  0  0  0  0  0  0
   -3.7871   24.7799    5.8493 O   0  0  0  0  0  0  0  0  0  0  0  0
   -4.6425   23.4636    5.1795 P   0  0  0  0  0  0  0  0  0  0  0  0
   -5.4427   23.9305    3.9844 O   0  0  0  0  0  0  0  0  0  0  0  0
   -5.7193   22.8626    6.3372 O   0  0  0  0  0  0  0  0  0  0  0  0
   -3.5654   22.2435    4.6720 O   0  0  0  0  0  0  0  0  0  0  0  0
   -4.3223   20.7413    4.9384 P   0  0  0  0  0  0  0  0  0  0  0  0
   -4.7263   20.6372    6.3929 O   0  0  0  0  0  0  0  0  0  0  0  0
   -5.7137   20.6850    3.9774 O   0  0  0  0  0  0  0  0  0  0  0  0
   -3.2665   19.4688    4.5227 O   0  0  0  0  0  0  0  0  0  0  0  0
   -2.0670   19.3394    5.7297 P   0  0  0  0  0  0  0  0  0  0  0  0
   -0.6118   18.9122    4.9815 O   0  0  0  0  0  0  0  0  0  0  0  0
   -1.8307   20.7990    6.5570 O   0  0  0  0  0  0  0  0  0  0  0  0
   -2.4850   18.1006    6.8611 S   0  0  0  0  0  0  0  0  0  0  0  0
  1 19  1  0  0  0
  1  2  1  0  0  0
  1  6  1  0  0  0
  2  3  1  0  0  0
  3 22  1  0  0  0
  3  4  1  0  0  0
  4  5  1  0  0  0
  4  6  1  0  0  0
  5  8  1  0  0  0
  6  7  1  0  0  0
  7  9  1  0  0  0
 10 11  1  0  0  0
 10 20  1  0  0  0
 10 21  1  0  0  0
 11 12  2  0  0  0
 11 16  1  0  0  0
 12 13  1  0  0  0
 13 14  2  0  0  0
 14 15  1  0  0  0
 15 16  2  0  0  0
 15 19  1  0  0  0
 16 17  1  0  0  0
 17 18  2  0  0  0
 18 19  1  0  0  0
 22 23  1  0  0  0
 23 24  1  0  0  0
 24 25  2  0  0  0
 24 26  1  0  0  0
 24 27  1  0  0  0
 27 28  1  0  0  0
 28 29  2  0  0  0
 28 30  1  0  0  0
 28 31  1  0  0  0
 31 32  1  0  0  0
 32 33  1  0  0  0
 32 34  1  0  0  0
 32 35  2  0  0  0
M  CHG 1  26  -1
M  CHG 1  30  -1
M  CHG 1  33  -1
M  CHG 1  34  -1
M  END
> <COMPND>
../0-casp/DBelp1.pdb

> <AUTHOR>
GENERATED BY OPEN BABEL 3.1.0

> <MASTER>
        0    0    0    0    0    0    0    0   35    0   35    0

> <minimizedAffinity>
-8.10664

> <CNNscore>
0.1962518245

> <CNNaffinity>
4.4329042435

> <CNN_VS>
0.8699655533

> <CNNaffinity_variance>
0.4170324206

$$$$
